<?xml version="1.0" encoding="UTF-8"?>

<!-- generated on 2024-06-14 12:53:15 by Eclipse SUMO netedit Version 1.19.0
<configuration xmlns:xsi="http://www.w3.org/2001/XMLSchema-instance" xsi:noNamespaceSchemaLocation="http://sumo.dlr.de/xsd/neteditConfiguration.xsd">

    <input>
        <sumo-net-file value="D:\OneDrive - ETH Zurich\01_Masterarbeit\Onboarding documents\Onboarding documents\Scenario EBC\Network\EBC_60sCycle.net.xml"/>
    </input>

    <output>
        <output-file value="D:\OneDrive - ETH Zurich\01_Masterarbeit\Onboarding documents\Onboarding documents\Scenario EBC\Network\EBC_60sCycle.net.xml"/>
    </output>

    <processing>
        <geometry.min-radius.fix.railways value="false"/>
        <geometry.max-grade.fix value="false"/>
        <offset.disable-normalization value="true"/>
        <lefthand value="0"/>
    </processing>

    <building_defaults>
        <default.spreadtype value="roadCenter"/>
    </building_defaults>

    <tls_building>
        <tls.ignore-internal-junction-jam value="1"/>
    </tls_building>

    <junctions>
        <no-internal-links value="true"/>
        <no-turnarounds value="true"/>
        <junctions.corner-detail value="5"/>
        <junctions.limit-turn-speed value="5.50"/>
        <rectangular-lane-cut value="0"/>
    </junctions>

    <pedestrian>
        <walkingareas value="0"/>
    </pedestrian>

</configuration>
-->

<net version="1.16" spreadType="roadCenter" junctionCornerDetail="5" limitTurnSpeed="5.50" tlsIgnoreInternalJunctionJam="1" xmlns:xsi="http://www.w3.org/2001/XMLSchema-instance" xsi:noNamespaceSchemaLocation="http://sumo.dlr.de/xsd/net_file.xsd">

    <location netOffset="-453384.27,-5237669.48" convBoundary="9543.91,26.78,12995.75,10215.75" origBoundary="8.382473,47.291670,8.740072,47.508391" projParameter="+proj=utm +zone=32 +ellps=WGS84 +datum=WGS84 +units=m +no_defs"/>

    <type id="highway.living_street" priority="3" numLanes="1" speed="6.85" oneway="0"/>
    <type id="highway.primary" priority="12" numLanes="2" speed="13.90" oneway="0" width="3.20"/>
    <type id="highway.residential" priority="3" numLanes="1" speed="6.85" oneway="0" width="2.70"/>
    <type id="highway.secondary" priority="11" numLanes="1" speed="13.89" oneway="0" width="3.20"/>
    <type id="highway.secondary_link" priority="6" numLanes="1" speed="13.80" oneway="0" width="3.20"/>
    <type id="highway.tertiary" priority="10" numLanes="1" speed="13.80" oneway="0" width="3.20"/>
    <type id="highway.unclassified" priority="4" numLanes="1" speed="6.85" oneway="0"/>

    <edge id="-1007827874#1" from="316677693" to="455526" priority="12" type="highway.primary" spreadType="roadCenter" shape="10389.88,9752.41 10349.80,9693.42 10344.19,9684.17">
        <lane id="-1007827874#1_0" index="0" allow="bicycle" speed="13.89" length="82.14" width="1.50" shape="10387.85,9753.61 10347.82,9694.69 10344.76,9689.64">
            <param key="origId" value="1007827874"/>
        </lane>
        <lane id="-1007827874#1_1" index="1" disallow="pedestrian tram rail_urban rail rail_electric rail_fast ship" speed="13.89" length="82.14" width="3.20" shape="10389.80,9752.29 10349.80,9693.42 10346.77,9688.42">
            <param key="origId" value="1007827874"/>
        </lane>
        <param key="ref" value="3;4"/>
    </edge>
    <edge id="-1011249147#0" from="28587330" to="5682256138" priority="3" type="highway.residential" spreadType="roadCenter">
        <lane id="-1011249147#0_0" index="0" allow="bicycle" speed="13.89" length="16.68" width="1.50" shape="10932.00,9376.96 10921.67,9368.02">
            <param key="origId" value="1011249147"/>
        </lane>
        <lane id="-1011249147#0_1" index="1" disallow="pedestrian tram rail_urban rail rail_electric rail_fast ship" speed="13.89" length="16.68" width="2.70" shape="10933.37,9375.37 10923.04,9366.43">
            <param key="origId" value="1011249147"/>
        </lane>
    </edge>
    <edge id="-1037128391#1" from="47775362" to="130114008" priority="10" type="highway.tertiary" spreadType="roadCenter" shape="10189.47,9007.77 10198.20,8997.02 10226.83,8956.86 10234.47,8946.15 10239.30,8939.38">
        <lane id="-1037128391#1_0" index="0" allow="bicycle" speed="13.89" length="84.64" width="1.50" shape="10193.31,9001.85 10197.60,8996.57 10226.22,8956.42 10233.86,8945.71 10236.29,8942.31">
            <param key="origId" value="1037128391 24586239"/>
        </lane>
    </edge>
    <edge id="-1037128393#0" from="571203142" to="130117368" priority="10" type="highway.tertiary" spreadType="roadCenter" shape="10297.11,8849.85 10314.16,8820.34 10320.47,8809.43 10326.66,8798.72">
        <lane id="-1037128393#0_0" index="0" allow="bicycle" speed="13.89" length="59.05" width="1.50" shape="10297.67,8845.69 10312.77,8819.54 10319.08,8808.63 10322.42,8802.86">
            <param key="origId" value="1037128393 1037128392"/>
        </lane>
    </edge>
    <edge id="-1037128394#0" from="104319425" to="571203142" priority="10" type="highway.tertiary" spreadType="roadCenter" shape="10284.39,8869.92 10287.46,8865.16 10292.72,8856.99 10297.11,8849.85">
        <lane id="-1037128394#0_0" index="0" allow="bicycle" speed="13.89" length="23.76" width="1.50" shape="10285.90,8866.20 10286.83,8864.75 10292.09,8856.59 10295.47,8851.08">
            <param key="origId" value="1037128394 1037128393"/>
        </lane>
    </edge>
    <edge id="-10414497#1" from="89008560" to="26886978" priority="3" type="highway.residential" spreadType="roadCenter" shape="11670.43,8551.41 11677.25,8556.05 11682.13,8559.64 11695.16,8569.78 11697.18,8571.46 11708.74,8581.68 11728.39,8601.36 11735.76,8606.89">
        <lane id="-10414497#1_0" index="0" allow="bicycle" speed="8.33" length="85.90" width="2.50" shape="11674.56,8549.44 11679.53,8552.83 11684.51,8556.49 11697.60,8566.67 11699.75,8568.46 11711.45,8578.80 11730.99,8598.37 11733.38,8600.17">
            <param key="origId" value="10414497 149233859 149233866"/>
        </lane>
        <lane id="-10414497#1_1" index="1" disallow="pedestrian tram rail_urban rail rail_electric rail_fast ship" speed="8.33" length="85.90" width="2.70" shape="11673.09,8551.59 11678.03,8554.95 11682.94,8558.56 11695.99,8568.72 11698.06,8570.44 11709.67,8580.70 11729.28,8600.34 11731.82,8602.25">
            <param key="origId" value="10414497 149233859 149233866"/>
        </lane>
        <param key="layer" value="1"/>
    </edge>
    <edge id="-10414497#2" from="89010597" to="89008560" priority="3" type="highway.residential" spreadType="roadCenter" shape="11634.53,8527.40 11641.04,8531.81 11669.45,8550.78">
        <lane id="-10414497#2_0" index="0" allow="bicycle" speed="8.33" length="43.24" width="2.50" shape="11639.60,8526.06 11643.24,8528.53 11669.56,8546.10">
            <param key="origId" value="10414497"/>
        </lane>
        <lane id="-10414497#2_1" index="1" disallow="pedestrian tram rail_urban rail rail_electric rail_fast ship" speed="8.33" length="43.24" width="2.70" shape="11638.14,8528.21 11641.79,8530.69 11668.13,8548.27">
            <param key="origId" value="10414497"/>
        </lane>
        <param key="layer" value="1"/>
    </edge>
    <edge id="-10418400#3" from="88993783" to="cluster_5255883857_88993792" priority="3" type="highway.residential" spreadType="roadCenter" shape="11229.80,8721.87 11246.56,8734.82 11258.11,8744.92 11286.43,8771.86 11292.80,8777.50">
        <lane id="-10418400#3_0" index="0" allow="bicycle" speed="8.33" length="84.53" width="1.50" shape="11233.82,8723.27 11247.42,8733.78 11259.02,8743.92 11287.26,8770.79">
            <param key="origId" value="10418400"/>
        </lane>
        <param key="origTo" value="5255883857"/>
    </edge>
    <edge id="-1042405420#1" from="cluster_44850081_5715288102" to="cluster_5080753537_9652255873" priority="3" type="highway.residential" spreadType="roadCenter" shape="12512.47,8811.64 12520.42,8821.88 12570.25,8902.26 12590.09,8933.54 12593.09,8938.66 12603.22,8955.07 12606.60,8960.09 12614.74,8969.46 12625.87,8978.65 12642.36,8987.57 12665.55,8998.87 12671.52,9001.73">
        <lane id="-1042405420#1_0" index="0" allow="bicycle" speed="8.33" length="263.72" width="1.50" shape="12518.15,8815.54 12522.15,8820.68 12572.03,8901.14 12591.88,8932.45 12594.89,8937.58 12604.99,8953.93 12608.27,8958.81 12616.21,8967.95 12627.05,8976.90 12643.32,8985.70 12666.47,8996.98 12677.20,9002.12">
            <param key="origId" value="1042405420 5772335 5772335"/>
        </lane>
        <lane id="-1042405420#1_1" index="1" disallow="pedestrian tram rail_urban rail rail_electric rail_fast ship" speed="8.33" length="263.72" width="2.70" shape="12516.49,8816.82 12520.42,8821.88 12570.25,8902.26 12590.09,8933.54 12593.09,8938.66 12603.22,8955.07 12606.60,8960.09 12614.74,8969.46 12625.87,8978.65 12642.36,8987.57 12665.55,8998.87 12676.30,9004.02">
            <param key="origId" value="1042405420 5772335 5772335"/>
        </lane>
        <param key="origFrom" value="44850081"/>
        <param key="origTo" value="9652255873"/>
    </edge>
    <edge id="-1056324193#1" from="30795581" to="26889117" priority="3" type="highway.residential" spreadType="roadCenter" shape="11662.17,8784.16 11706.07,8737.33 11710.79,8732.20">
        <lane id="-1056324193#1_0" index="0" disallow="pedestrian tram rail_urban rail rail_electric rail_fast ship" speed="13.89" length="71.16" width="2.70" shape="11664.27,8779.94 11705.08,8736.41 11707.65,8733.62">
            <param key="origId" value="1056324193"/>
        </lane>
    </edge>
    <edge id="-10594635#0" from="J53" to="1608966953" priority="3" type="highway.residential" spreadType="center" shape="11948.88,8603.18 11954.72,8604.35 12015.37,8616.96 12020.61,8618.42">
        <lane id="-10594635#0_0" index="0" disallow="pedestrian tram rail_urban rail rail_electric rail_fast ship" speed="8.33" length="73.34" width="2.70" shape="11952.80,8603.97 11954.72,8604.35 12015.37,8616.96 12017.28,8617.49">
            <param key="origId" value="10594635 332455377"/>
        </lane>
    </edge>
    <edge id="-10594647#3" from="92489491" to="28961398" priority="3" type="highway.residential" spreadType="roadCenter" shape="11881.79,8482.53 11873.94,8480.38 11869.84,8479.33 11833.12,8469.12 11822.73,8466.09">
        <lane id="-10594647#3_0" index="0" allow="bicycle" speed="13.89" length="61.31" width="2.50" shape="11877.50,8482.65 11873.62,8481.59 11869.52,8480.54 11832.78,8470.32 11827.44,8468.76">
            <param key="origId" value="10594647"/>
        </lane>
    </edge>
    <edge id="-1068811627" from="88998467" to="38439578" priority="3" type="highway.residential" spreadType="roadCenter" shape="11298.09,8651.16 11311.33,8637.29 11314.72,8633.75 11320.32,8625.89">
        <lane id="-1068811627_0" index="0" disallow="pedestrian tram rail_urban rail rail_electric rail_fast ship" speed="8.33" length="33.73" width="2.70" shape="11299.64,8648.45 11310.79,8636.77 11314.14,8633.27 11316.30,8630.24">
            <param key="origId" value="1068811627 10418321"/>
        </lane>
    </edge>
    <edge id="-10750844#1" from="29798701" to="29798700" priority="10" type="highway.tertiary" spreadType="roadCenter" shape="11428.12,8645.73 11424.67,8653.02 11420.98,8659.79 11417.32,8665.40 11413.69,8670.15 11407.83,8677.05">
        <lane id="-10750844#1_0" index="0" disallow="pedestrian tram rail_urban rail rail_electric rail_fast ship" speed="13.89" length="37.50" width="3.20" shape="11428.91,8647.79 11426.10,8653.75 11422.35,8660.61 11418.63,8666.32 11414.94,8671.15 11413.75,8672.55">
            <param key="origId" value="10750844"/>
        </lane>
    </edge>
    <edge id="-10755051" from="5777113872" to="cluster4284082380_4392778978" priority="10" type="highway.tertiary" spreadType="roadCenter" shape="11652.54,9354.72 11602.45,9373.52 11590.05,9378.02 11580.96,9382.00 11574.71,9385.41">
        <lane id="-10755051_0" index="0" disallow="pedestrian tram rail_urban rail rail_electric rail_fast ship" speed="8.33" length="87.46" width="3.20" shape="11651.97,9356.64 11603.00,9375.02 11590.64,9379.51 11582.19,9383.21">
            <param key="origId" value="10755051 429288348"/>
        </lane>
    </edge>
    <edge id="-1089407128#2" from="631161268" to="27256991" priority="10" type="highway.tertiary" spreadType="roadCenter" shape="11122.41,9020.78 11095.81,9014.10 11081.34,9010.86 11080.20,9010.60">
        <lane id="-1089407128#2_0" index="0" allow="bicycle" speed="13.89" length="43.42" width="2.50" shape="11121.57,9023.51 11095.15,9016.87 11086.62,9014.96">
            <param key="origId" value="1089407128"/>
        </lane>
        <lane id="-1089407128#2_1" index="1" disallow="pedestrian tram rail_urban rail rail_electric rail_fast ship" speed="13.89" length="43.42" width="3.20" shape="11122.27,9020.74 11095.81,9014.10 11087.26,9012.18">
            <param key="origId" value="1089407128"/>
        </lane>
    </edge>
    <edge id="-1111971585#2" from="30230049" to="318314466" priority="10" type="highway.tertiary" spreadType="roadCenter" shape="11424.85,9515.74 11407.51,9531.71 11388.09,9549.62 11381.82,9555.26">
        <lane id="-1111971585#2_0" index="0" allow="bicycle" speed="13.89" length="58.42" width="1.50" shape="11424.71,9519.06 11409.10,9533.44 11389.67,9551.36 11387.25,9553.54">
            <param key="origId" value="1111971585"/>
        </lane>
    </edge>
    <edge id="-1111971585#4" from="5534714077" to="30230049" priority="10" type="highway.tertiary" spreadType="roadCenter" shape="11453.11,9489.68 11432.42,9508.75 11424.85,9515.74">
        <lane id="-1111971585#4_0" index="0" allow="bicycle" speed="13.89" length="38.44" width="1.50" shape="11453.60,9492.42 11434.01,9510.48 11428.02,9516.01">
            <param key="origId" value="1111971585"/>
        </lane>
    </edge>
    <edge id="-1113744422#1" from="1622616952" to="cluster_27028543_5183760624" priority="10" type="highway.tertiary" spreadType="roadCenter" shape="12658.51,8602.64 12621.74,8647.02 12585.48,8690.51 12581.95,8694.73 12572.40,8706.18 12568.36,8710.74 12565.49,8713.96 12563.01,8716.50 12558.79,8720.65">
        <lane id="-1113744422#1_0" index="0" disallow="pedestrian rail_fast" speed="13.89" length="160.43" width="3.20" shape="12655.16,8609.19 12622.97,8648.04 12586.71,8691.53 12583.18,8695.76 12573.61,8707.22 12569.56,8711.80 12566.66,8715.05 12564.14,8717.63 12563.12,8718.64">
            <param key="origId" value="1113744422 1113744422 1163500949 1163500949"/>
        </lane>
        <param key="origTo" value="27028543"/>
    </edge>
    <edge id="-1117202247#0" from="29798654" to="28137428" priority="10" type="highway.tertiary" spreadType="roadCenter" shape="11070.16,9714.33 11075.45,9710.25 11135.45,9666.07 11147.75,9656.48 11159.63,9647.55 11166.70,9641.65">
        <lane id="-1117202247#0_0" index="0" disallow="pedestrian tram rail_urban rail rail_electric rail_fast ship" speed="13.89" length="120.86" width="3.20" shape="11074.42,9709.03 11134.48,9664.79 11146.78,9655.21 11158.64,9646.30 11161.31,9644.06">
            <param key="origId" value="1117202247 374535325"/>
        </lane>
    </edge>
    <edge id="-1117202247#3" from="28137447" to="29798654" priority="10" type="highway.tertiary" spreadType="roadCenter" shape="10963.96,9793.27 10971.47,9787.49 10982.25,9779.46 11007.57,9760.71 11070.16,9714.33">
        <lane id="-1117202247#3_0" index="0" disallow="pedestrian tram rail_urban rail rail_electric rail_fast ship" speed="13.89" length="132.33" width="3.20" shape="10971.05,9785.81 10981.30,9778.17 11006.62,9759.42 11063.80,9717.05">
            <param key="origId" value="1117202247"/>
        </lane>
    </edge>
    <edge id="-1137649511#3" from="26678670" to="27587740" priority="3" type="highway.residential" spreadType="roadCenter" shape="12825.50,8099.72 12828.11,8096.54 12845.48,8075.49 12846.46,8074.30 12860.28,8057.55">
        <lane id="-1137649511#3_0" index="0" disallow="pedestrian rail_fast" speed="8.33" length="54.66" width="2.70" shape="12828.26,8095.18 12844.90,8075.01 12845.88,8073.82 12858.38,8058.68">
            <param key="origId" value="1137649511"/>
        </lane>
    </edge>
    <edge id="-1139084789#1" from="347339990" to="28137447" priority="10" type="highway.tertiary" spreadType="roadCenter" shape="10858.15,9875.31 10904.76,9839.84 10945.77,9807.48 10954.60,9800.51 10963.96,9793.27">
        <lane id="-1139084789#1_0" index="0" disallow="pedestrian tram rail_urban rail rail_electric rail_fast ship" speed="13.89" length="133.89" width="3.20" shape="10860.35,9871.63 10903.78,9838.58 10944.78,9806.22 10953.61,9799.25 10956.19,9797.26">
            <param key="origId" value="1139084789"/>
        </lane>
    </edge>
    <edge id="-1139084789#3" from="315269393" to="347339990" priority="10" type="highway.tertiary" spreadType="roadCenter" shape="10820.24,9905.24 10828.88,9898.68 10858.15,9875.31">
        <lane id="-1139084789#3_0" index="0" disallow="pedestrian tram rail_urban rail rail_electric rail_fast ship" speed="13.89" length="48.30" width="3.20" shape="10823.78,9900.54 10827.90,9897.42 10855.47,9875.40">
            <param key="origId" value="1139084789"/>
        </lane>
    </edge>
    <edge id="-1163529329" from="1638473942" to="3962734307" priority="11" type="highway.secondary" spreadType="roadCenter">
        <lane id="-1163529329_0" index="0" allow="bicycle" speed="13.89" length="15.36" width="2.50" shape="12423.25,8106.80 12431.21,8112.37">
            <param key="origId" value="1163529329"/>
        </lane>
    </edge>
    <edge id="-1163544455#1" from="34669944" to="38439578" priority="10" type="highway.tertiary" spreadType="roadCenter" shape="11186.99,8553.18 11192.54,8556.28 11211.54,8566.54 11320.32,8625.89">
        <lane id="-1163544455#1_0" index="0" allow="bicycle" speed="8.33" length="151.87" width="1.50" shape="11191.78,8553.16 11193.67,8554.22 11212.66,8564.47 11315.52,8620.59">
            <param key="origId" value="1163544455 1163544455 284105538"/>
        </lane>
        <lane id="-1163544455#1_1" index="1" disallow="pedestrian tram rail_urban rail rail_electric rail_fast ship" speed="8.33" length="151.87" width="3.20" shape="11190.63,8555.21 11192.54,8556.28 11211.54,8566.54 11314.39,8622.66">
            <param key="origId" value="1163544455 1163544455 284105538"/>
        </lane>
    </edge>
    <edge id="-1163565847#2" from="34646953" to="29798717" priority="3" type="highway.residential" spreadType="roadCenter" shape="11596.49,8379.20 11593.03,8386.53 11590.99,8390.62 11580.23,8411.89 11574.30,8423.63 11570.70,8431.29 11569.07,8435.57 11560.14,8474.18 11557.11,8492.29">
        <lane id="-1163565847#2_0" index="0" disallow="pedestrian rail_fast" speed="8.33" length="120.70" width="2.70" shape="11595.41,8384.65 11594.25,8387.12 11592.20,8391.23 11581.43,8412.50 11575.51,8424.22 11571.94,8431.82 11570.36,8435.96 11561.46,8474.44 11559.89,8483.85">
            <param key="origId" value="1163565847 1163565847 112168940 112168940 112168955 112168955"/>
        </lane>
    </edge>
    <edge id="-1163569502#1" from="29798703" to="10821411458" priority="10" type="highway.tertiary" spreadType="roadCenter" shape="11651.69,8100.92 11646.04,8111.56 11622.47,8157.97">
        <lane id="-1163569502#1_0" index="0" allow="bicycle" speed="8.33" length="64.10" width="1.50" shape="11649.40,8110.24 11648.13,8112.64 11624.63,8158.90">
            <param key="origId" value="1163569502"/>
        </lane>
        <lane id="-1163569502#1_1" index="1" disallow="pedestrian rail_fast" speed="8.33" length="64.10" width="3.20" shape="11647.33,8109.14 11646.04,8111.56 11622.54,8157.84">
            <param key="origId" value="1163569502"/>
        </lane>
    </edge>
    <edge id="-11662745#2" from="47775250" to="47775268" priority="3" type="highway.residential" spreadType="roadCenter" shape="9677.57,9508.91 9720.79,9473.43 9742.79,9456.23 9748.61,9451.30">
        <lane id="-11662745#2_0" index="0" allow="bicycle" speed="8.33" length="91.47" width="1.50" shape="9679.47,9506.38 9720.32,9472.84 9742.32,9455.65 9744.83,9453.52">
            <param key="origId" value="11662745"/>
        </lane>
    </edge>
    <edge id="-11663107#1" from="104304010" to="104303882" priority="3" type="highway.residential" spreadType="roadCenter" shape="9964.68,9377.85 9959.73,9384.23 9896.65,9459.79">
        <lane id="-11663107#1_0" index="0" disallow="pedestrian tram rail_urban rail rail_electric rail_fast ship" speed="8.33" length="106.50" width="2.70" shape="9961.58,9384.05 9960.78,9385.08 9899.84,9458.07">
            <param key="origId" value="11663107"/>
        </lane>
    </edge>
    <edge id="-11663107#3" from="473403330" to="104304010" priority="3" type="highway.residential" spreadType="roadCenter" shape="9993.29,9342.45 9968.47,9372.98 9964.68,9377.85">
        <lane id="-11663107#3_0" index="0" allow="bicycle" speed="8.33" length="45.52" width="1.50" shape="9992.01,9345.22 9969.06,9373.45 9967.88,9374.95">
            <param key="origId" value="11663107"/>
        </lane>
    </edge>
    <edge id="-11663107#5" from="73132607" to="473403330" priority="3" type="highway.residential" spreadType="roadCenter" shape="10041.54,9283.99 10036.41,9289.92 9993.29,9342.45">
        <lane id="-11663107#5_0" index="0" disallow="pedestrian tram rail_urban rail rail_electric rail_fast ship" speed="8.33" length="75.80" width="2.70" shape="10038.12,9290.00 10037.44,9290.79 9996.28,9340.94">
            <param key="origId" value="11663107"/>
        </lane>
    </edge>
    <edge id="-11663107#8" from="150536062" to="73132607" priority="3" type="highway.residential" spreadType="roadCenter" shape="10117.45,9192.04 10113.84,9196.76 10047.23,9277.13 10041.54,9283.99">
        <lane id="-11663107#8_0" index="0" allow="bicycle" speed="8.33" length="119.24" width="1.50" shape="10115.46,9195.88 10114.43,9197.23 10047.81,9277.61 10044.81,9281.22">
            <param key="origId" value="11663107"/>
        </lane>
    </edge>
    <edge id="-11663148#0" from="104304010" to="2202561100" priority="3" type="highway.residential" spreadType="roadCenter" shape="9964.68,9377.85 9969.25,9381.66 9991.76,9401.15">
        <lane id="-11663148#0_0" index="0" disallow="pedestrian tram rail_urban rail rail_electric rail_fast ship" speed="8.33" length="39.33" width="2.70" shape="9970.75,9381.18 9993.40,9400.79">
            <param key="origId" value="11663148"/>
        </lane>
    </edge>
    <edge id="-11663148#2" from="104295048" to="104304010" priority="3" type="highway.residential" spreadType="roadCenter" shape="9888.15,9312.92 9959.61,9373.62 9964.68,9377.85">
        <lane id="-11663148#2_0" index="0" disallow="pedestrian tram rail_urban rail rail_electric rail_fast ship" speed="8.33" length="100.36" width="2.70" shape="9894.44,9316.49 9960.47,9372.58">
            <param key="origId" value="11663148"/>
        </lane>
    </edge>
    <edge id="-11663148#5" from="73129590" to="104295048" priority="3" type="highway.residential" spreadType="roadCenter" shape="9813.53,9249.44 9817.19,9252.56 9881.56,9307.46 9888.15,9312.92">
        <lane id="-11663148#5_0" index="0" allow="bicycle" speed="8.33" length="97.97" width="1.50" shape="9817.61,9251.93 9882.04,9306.89 9885.19,9309.49">
            <param key="origId" value="11663148"/>
        </lane>
    </edge>
    <edge id="-11665173#1" from="47775326" to="47775343" priority="3" type="highway.residential" spreadType="roadCenter" shape="10059.26,9144.96 10064.43,9139.93 10128.20,9077.97">
        <lane id="-11665173#1_0" index="0" disallow="pedestrian tram rail_urban rail rail_electric rail_fast ship" speed="8.33" length="96.13" width="2.70" shape="10063.36,9139.09 10063.49,9138.96 10124.86,9079.33">
            <param key="origId" value="11665173"/>
        </lane>
    </edge>
    <edge id="-11667106#1" from="26886959" to="26886958" priority="3" type="highway.residential" spreadType="roadCenter" shape="11472.46,8110.36 11507.60,8035.59 11509.16,8031.16 11511.40,8022.41 11512.76,8018.16 11519.01,8005.99">
        <lane id="-11667106#1_0" index="0" allow="bicycle" speed="8.33" length="114.49" width="2.50" shape="11472.99,8106.29 11506.44,8035.12 11507.96,8030.80 11510.20,8022.06 11511.60,8017.68 11513.76,8013.47">
            <param key="origId" value="11667106"/>
        </lane>
    </edge>
    <edge id="-11667106#4" from="43594249" to="26886959" priority="3" type="highway.residential" spreadType="roadCenter" shape="11442.40,8174.29 11444.48,8169.87 11469.14,8117.40 11472.46,8110.36">
        <lane id="-11667106#4_0" index="0" allow="bicycle" speed="8.33" length="70.64" width="2.50" shape="11443.04,8170.00 11443.35,8169.34 11468.01,8116.87 11469.39,8113.93">
            <param key="origId" value="11667106"/>
        </lane>
    </edge>
    <edge id="-11667106#6" from="43599533" to="43594249" priority="3" type="highway.residential" spreadType="roadCenter" shape="11418.06,8225.82 11438.47,8182.55 11442.40,8174.29">
        <lane id="-11667106#6_0" index="0" allow="bicycle" speed="8.33" length="56.99" width="2.50" shape="11418.15,8222.71 11437.34,8182.02 11439.45,8177.58">
            <param key="origId" value="11667106"/>
        </lane>
    </edge>
    <edge id="-11667106#8" from="26886960" to="43599533" priority="3" type="highway.residential" spreadType="roadCenter" shape="11394.23,8276.35 11397.37,8269.75 11418.06,8225.82">
        <lane id="-11667106#8_0" index="0" disallow="pedestrian rail_fast" speed="8.33" length="55.87" width="2.70" shape="11394.83,8271.95 11396.15,8269.17 11415.49,8228.11">
            <param key="origId" value="11667106"/>
        </lane>
    </edge>
    <edge id="-1167488601" from="300901628" to="29033257" priority="10" type="highway.tertiary" spreadType="center" shape="12142.67,9516.16 12126.93,9562.45">
        <lane id="-1167488601_0" index="0" disallow="pedestrian tram rail_urban rail rail_electric rail_fast ship" speed="13.89" length="51.62" width="3.20" shape="12142.50,9516.67 12128.49,9557.85">
            <param key="origId" value="1167488601"/>
        </lane>
    </edge>
    <edge id="-11916106#1" from="6778578979" to="29055496" priority="12" type="highway.primary" spreadType="roadCenter" shape="12193.12,8546.29 12233.20,8492.41 12251.94,8466.79">
        <lane id="-11916106#1_0" index="0" allow="bicycle" speed="8.33" length="98.89" width="2.50" shape="12189.55,8543.63 12229.62,8489.77 12247.53,8465.28">
            <param key="origId" value="11916106"/>
        </lane>
        <lane id="-11916106#1_1" index="1" disallow="pedestrian tram rail_urban rail rail_electric rail_fast ship" speed="8.33" length="98.89" width="3.20" shape="12191.84,8545.34 12231.91,8491.46 12249.83,8466.96">
            <param key="origId" value="11916106"/>
        </lane>
        <param key="ref" value="17"/>
    </edge>
    <edge id="-11917063#2" from="5116225774" to="631161268" priority="10" type="highway.tertiary" spreadType="roadCenter" shape="11203.01,9046.62 11174.11,9035.88 11153.28,9029.25 11134.76,9024.06 11122.41,9020.78">
        <lane id="-11917063#2_0" index="0" allow="bicycle" speed="13.89" length="84.70" width="2.50" shape="11199.46,9048.34 11173.18,9038.58 11152.46,9031.98 11134.01,9026.81 11121.82,9023.57">
            <param key="origId" value="11917063"/>
        </lane>
        <lane id="-11917063#2_1" index="1" disallow="pedestrian tram rail_urban rail rail_electric rail_fast ship" speed="13.89" length="84.70" width="3.20" shape="11200.45,9045.67 11174.11,9035.88 11153.28,9029.25 11134.76,9024.06 11122.55,9020.82">
            <param key="origId" value="11917063"/>
        </lane>
    </edge>
    <edge id="-11917566#2" from="27256997" to="27256996" priority="10" type="highway.tertiary" spreadType="roadCenter" shape="10487.32,9604.78 10495.55,9600.54 10549.57,9572.49 10558.94,9567.43">
        <lane id="-11917566#2_0" index="0" disallow="pedestrian tram rail_urban rail rail_electric rail_fast ship" speed="8.33" length="80.78" width="3.20" shape="10489.79,9602.66 10495.21,9599.87 10549.22,9571.83 10553.68,9569.42">
            <param key="origId" value="11917566"/>
        </lane>
    </edge>
    <edge id="-11917566#5" from="30825863" to="27256997" priority="10" type="highway.tertiary" spreadType="roadCenter" shape="10394.72,9657.31 10407.92,9649.82 10452.53,9624.48 10480.16,9608.80 10487.32,9604.78">
        <lane id="-11917566#5_0" index="0" disallow="pedestrian tram rail_urban rail rail_electric rail_fast ship" speed="8.33" length="106.46" width="3.20" shape="10397.92,9654.63 10407.55,9649.17 10452.16,9623.83 10479.79,9608.15 10483.33,9606.16">
            <param key="origId" value="11917566"/>
        </lane>
    </edge>
    <edge id="-11918011" from="211185009" to="30795581" priority="3" type="highway.residential" spreadType="roadCenter" shape="11614.57,8836.15 11637.81,8810.76 11641.77,8806.43 11662.17,8784.16">
        <lane id="-11918011_0" index="0" allow="bicycle" speed="13.89" length="70.49" width="1.50" shape="11615.78,8829.72 11635.26,8808.43 11639.23,8804.10 11657.35,8784.31">
            <param key="origId" value="11918011 1056324193 1056324193"/>
        </lane>
        <lane id="-11918011_1" index="1" allow="bus" speed="13.89" length="70.49" width="2.70" shape="11617.33,8831.14 11636.81,8809.85 11640.77,8805.52 11658.90,8785.73">
            <param key="origId" value="11918011 1056324193 1056324193"/>
        </lane>
    </edge>